string
__Jmol-14_11221922033D 1   1.00000     0.00000     0
Jmol version 14.29.55  2019-10-09 17:42 EXTRACT: ({0:29})
 30 33  0  0  0  0            999 V2000
   -5.3353    0.4888   -0.0001 C   0  0  0  0  0  0
   -5.2357   -0.9177   -0.0002 C   0  0  0  0  0  0
   -3.9787   -1.5370   -0.0002 C   0  0  0  0  0  0
   -2.8410   -0.7375    0.0000 C   0  0  0  0  0  0
   -2.9447    0.6389    0.0001 C   0  0  0  0  0  0
   -4.1806    1.2842    0.0001 C   0  0  0  0  0  0
   -1.5660    1.1746   -0.0001 C   0  0  0  0  0  0
   -1.2489    2.3641    0.0001 O   0  0  0  0  0  0
   -0.6762   -0.0428   -0.0005 C   0  0  0  0  0  0
    0.6761    0.0427   -0.0001 C   0  0  0  0  0  0
    1.5659   -1.1746    0.0002 C   0  0  0  0  0  0
    1.2488   -2.3640    0.0003 O   0  0  0  0  0  0
    2.9446   -0.6389   -0.0001 C   0  0  0  0  0  0
    4.1805   -1.2844    0.0004 C   0  0  0  0  0  0
    5.3352   -0.4889    0.0003 C   0  0  0  0  0  0
    5.2355    0.9175    0.0004 C   0  0  0  0  0  0
    3.9786    1.5369    0.0001 C   0  0  0  0  0  0
    2.8409    0.7375   -0.0015 C   0  0  0  0  0  0
    1.5073    1.1439    0.0004 N   0  0  0  0  0  0
   -1.5074   -1.1439   -0.0005 N   0  0  0  0  0  0
   -6.3145    0.9563   -0.0002 H   0  0  0  0  0  0
   -6.1362   -1.5227   -0.0003 H   0  0  0  0  0  0
   -3.8984   -2.6217   -0.0003 H   0  0  0  0  0  0
   -4.2400    2.3710    0.0002 H   0  0  0  0  0  0
    4.2398   -2.3712    0.0007 H   0  0  0  0  0  0
    6.3143   -0.9565    0.0003 H   0  0  0  0  0  0
    6.1361    1.5225    0.0010 H   0  0  0  0  0  0
    3.8983    2.6217    0.0008 H   0  0  0  0  0  0
    1.1649    2.1050   -0.0089 H   0  0  0  0  0  0
   -1.1651   -2.1051    0.0001 H   0  0  0  0  0  0
  1  2  1  0  0  0
  2  3  2  0  0  0
  3  4  1  0  0  0
  4  5  2  0  0  0
  5  6  1  0  0  0
  1  6  2  0  0  0
  5  7  1  0  0  0
  7  8  2  0  0  0
  7  9  1  0  0  0
  9 10  2  0  0  0
 10 11  1  0  0  0
 11 12  2  0  0  0
 11 13  1  0  0  0
 13 14  1  0  0  0
 14 15  2  0  0  0
 15 16  1  0  0  0
 16 17  2  0  0  0
 17 18  1  0  0  0
 13 18  2  0  0  0
 18 19  1  0  0  0
 10 19  1  0  0  0
  9 20  1  0  0  0
  4 20  1  0  0  0
  1 21  1  0  0  0
  2 22  1  0  0  0
  3 23  1  0  0  0
  6 24  1  0  0  0
 14 25  1  0  0  0
 15 26  1  0  0  0
 16 27  1  0  0  0
 17 28  1  0  0  0
 19 29  1  0  0  0
 20 30  1  0  0  0
M  END

